powerfulcases/cases/matpower/case2869pegase/case2869pegase.raw
0, 100, 33, 0, 0, 60  / 28-Jan-2026 21:51:44 - MATPOWER 8.1


     3, 'BUS 3       ',       220, 1,    0,    5, 1,    1.015975,  -21.797826,  1.1,  0.9,  1.1,  0.9
     4, 'BUS 4       ',       220, 1,    0,    5, 1,    1.025797,   -7.009176,  1.1,  0.9,  1.1,  0.9
    10, 'BUS 10      ',       220, 1,    0,    5, 1,    1.037973,   -24.31171,  1.1,  0.9,  1.1,  0.9
    15, 'BUS 15      ',       220, 1,    0,    4, 1,    1.024279,  -48.286579,  1.1,  0.9,  1.1,  0.9
    21, 'BUS 21      ',       220, 1,    0,    5, 1,    1.035642,  -21.986561,  1.1,  0.9,  1.1,  0.9
    22, 'BUS 22      ',       220, 1,    0,    5, 1,    1.032862,   -18.51179,  1.1,  0.9,  1.1,  0.9
    26, 'BUS 26      ',       380, 1,    0,    5, 1,    1.032832,   -3.303479,  1.1,  0.9,  1.1,  0.9
    29, 'BUS 29      ',       380, 1,    0,    5, 1,    0.997905,  -13.742779,  1.1,  0.9,  1.1,  0.9
    32, 'BUS 32      ',       220, 2,    0,    4, 1,    1.006206,   -42.36182,  1.1,  0.9,  1.1,  0.9
    33, 'BUS 33      ',       220, 2,    0,    4, 1,    1.031909,  -37.946488,  1.1,  0.9,  1.1,  0.9
    38, 'BUS 38      ',       220, 1,    0,    8, 1,    1.028477,   26.320254,  1.1,  0.9,  1.1,  0.9
    39, 'BUS 39      ',       150, 2,    0,   10, 1,    1.005551,  -37.656299,  1.1,  0.9,  1.1,  0.9
    42, 'BUS 42      ',       380, 1,    0,    4, 1,    1.047415,  -48.480512,  1.1,  0.9,  1.1,  0.9
    44, 'BUS 44      ',       220, 1,    0,    5, 1,    1.045273,   -22.20917,  1.1,  0.9,  1.1,  0.9
    51, 'BUS 51      ',       220, 2,    0,    4, 1,     1.01198,  -47.438988,  1.1,  0.9,  1.1,  0.9
    52, 'BUS 52      ',       150, 1,    0,    8, 1,    1.013245,    0.963784,  1.1,  0.9,  1.1,  0.9
    53, 'BUS 53      ',       220, 1,    0,    5, 1,    1.060523,   -9.105713,  1.1,  0.9,  1.1,  0.9
    58, 'BUS 58      ',       380, 1,    0,    5, 1,    0.995373,  -21.587045,  1.1,  0.9,  1.1,  0.9
    59, 'BUS 59      ',       220, 1,    0,    5, 1,    1.031574,  -23.793559,  1.1,  0.9,  1.1,  0.9
    69, 'BUS 69      ',       150, 1,    0,    8, 1,    1.011798,    -0.30934,  1.1,  0.9,  1.1,  0.9
    71, 'BUS 71      ',       150, 1,    0,    8, 1,    1.037783,    3.197998,  1.1,  0.9,  1.1,  0.9
    72, 'BUS 72      ',       220, 1,    0,    4, 1,    1.009626,  -40.551667,  1.1,  0.9,  1.1,  0.9
    75, 'BUS 75      ',       220, 1,    0,    4, 1,    1.024422,  -52.498016,  1.1,  0.9,  1.1,  0.9
    76, 'BUS 76      ',       220, 1,    0,    8, 1,    1.028539,   26.329875,  1.1,  0.9,  1.1,  0.9
    77, 'BUS 77      ',       220, 1,    0,    4, 1,    1.013066,  -48.881785,  1.1,  0.9,  1.1,  0.9
    89, 'BUS 89      ',       380, 1,    0,    2, 1,    0.996001,   -4.601142,  1.1,  0.9,  1.1,  0.9
    90, 'BUS 90      ',       220, 1,    0,    5, 1,     1.04293,  -27.629609,  1.1,  0.9,  1.1,  0.9
    91, 'BUS 91      ',       150, 1,    0,    8, 1,    1.011563,    0.577525,  1.1,  0.9,  1.1,  0.9
    96, 'BUS 96      ',       220, 1,    0,    5, 1,    1.034803,  -15.625024,  1.1,  0.9,  1.1,  0.9
   113, 'BUS 113     ',       380, 1,    0,    5, 1,    1.030544,  -14.260449,  1.1,  0.9,  1.1,  0.9
   115, 'BUS 115     ',       220, 1,    0,    5, 1,    1.065676,  -19.810351,  1.1,  0.9,  1.1,  0.9
   118, 'BUS 118     ',       380, 1,    0,    5, 1,    1.021915,  -11.391408,  1.1,  0.9,  1.1,  0.9
   124, 'BUS 124     ',       220, 2,    0,    5, 1,    1.079291,    8.367367,  1.1,  0.9,  1.1,  0.9
   128, 'BUS 128     ',       220, 1,    0,    5, 1,    1.020115,  -16.088574,  1.1,  0.9,  1.1,  0.9
   130, 'BUS 130     ',       380, 1,    0,   10, 1,    1.062972,  -46.623005,  1.1,  0.9,  1.1,  0.9
   132, 'BUS 132     ',       380, 1,    0,    1, 1,    1.067846,  -43.278308,  1.1,  0.9,  1.1,  0.9
   133, 'BUS 133     ',       150, 1,    0,    8, 1,     1.01895,    2.823528,  1.1,  0.9,  1.1,  0.9
   138, 'BUS 138     ',       380, 1,    0,   10, 1,    1.071168,   -41.33849,  1.1,  0.9,  1.1,  0.9
   139, 'BUS 139     ',       380, 1,    0,    8, 1,    1.002952,   17.568852,  1.1,  0.9,  1.1,  0.9
   140, 'BUS 140     ',       220, 1,    0,    8, 1,    1.029191,   17.813411,  1.1,  0.9,  1.1,  0.9
   143, 'BUS 143     ',       150, 1,    0,    8, 1,    1.013822,      4.4155,  1.1,  0.9,  1.1,  0.9
   145, 'BUS 145     ',       220, 1,    0,    5, 1,    1.042169,   -8.880162,  1.1,  0.9,  1.1,  0.9
   148, 'BUS 148     ',       220, 1,    0,    5, 1,    1.041686,   -7.998665,  1.1,  0.9,  1.1,  0.9
   150, 'BUS 150     ',       220, 2,    0,    5, 1,    1.062067,    2.553662,  1.1,  0.9,  1.1,  0.9
   163, 'BUS 163     ',       220, 1,    0,    5, 1,    1.042505,  -10.668912,  1.1,  0.9,  1.1,  0.9
   164, 'BUS 164     ',       150, 1,    0,    8, 1,    1.015861,   -0.666839,  1.1,  0.9,  1.1,  0.9
   171, 'BUS 171     ',       220, 1,    0,    5, 1,    1.063782,  -25.157599,  1.1,  0.9,  1.1,  0.9
   172, 'BUS 172     ',       220, 1,    0,    4, 1,    1.017044,  -46.443671,  1.1,  0.9,  1.1,  0.9
   174, 'BUS 174     ',       220, 1,    0,    5, 1,    1.073491,  -27.987179,  1.1,  0.9,  1.1,  0.9
   177, 'BUS 177     ',       220, 1,    0,   10, 1,    0.973375,  -42.693578,  1.1,  0.9,  1.1,  0.9
   179, 'BUS 179     ',       380, 2,    0,    4, 1,    1.048817,   -49.34001,  1.1,  0.9,  1.1,  0.9
   184, 'BUS 184     ',       220, 1,    0,    5, 1,    1.043679,  -11.957994,  1.1,  0.9,  1.1,  0.9
   188, 'BUS 188     ',       220, 1,    0,    5, 1,    1.018271,  -19.570046,  1.1,  0.9,  1.1,  0.9
   194, 'BUS 194     ',       150, 2,    0,    8, 1,    1.029584,    13.78786,  1.1,  0.9,  1.1,  0.9
   195, 'BUS 195     ',       220, 1,    0,    5, 1,    1.053191,   -8.795989,  1.1,  0.9,  1.1,  0.9
   196, 'BUS 196     ',       220, 1,    0,    5, 1,    1.074427,  -26.348559,  1.1,  0.9,  1.1,  0.9
   198, 'BUS 198     ',       220, 1,    0,    5, 1,     1.01582,  -16.334436,  1.1,  0.9,  1.1,  0.9
   199, 'BUS 199     ',       150, 1,    0,    8, 1,    1.011196,    0.998875,  1.1,  0.9,  1.1,  0.9
   201, 'BUS 201     ',       220, 2,    0,    4, 1,    1.024675,  -50.722374,  1.1,  0.9,  1.1,  0.9
   205, 'BUS 205     ',       150, 1,    0,    8, 1,     1.00871,    4.996181,  1.1,  0.9,  1.1,  0.9
   207, 'BUS 207     ',       220, 1,    0,    5, 1,    1.027593,   -13.46248,  1.1,  0.9,  1.1,  0.9
   211, 'BUS 211     ',       110, 1,    0,    8, 1,    1.032527,   13.596519,  1.1,  0.9,  1.1,  0.9
   216, 'BUS 216     ',       220, 1,    0,    5, 1,    1.038563,  -24.634597,  1.1,  0.9,  1.1,  0.9
   217, 'BUS 217     ',       220, 1,    0,    5, 1,    1.034707,   -2.558504,  1.1,  0.9,  1.1,  0.9
   218, 'BUS 218     ',       220, 1,    0,    5, 1,    1.042445,  -13.132419,  1.1,  0.9,  1.1,  0.9
   221, 'BUS 221     ',       380, 2,    0,    5, 1,    0.996091,  -22.219166,  1.1,  0.9,  1.1,  0.9
   225, 'BUS 225     ',       220, 1,    0,    5, 1,    1.062639,  -20.201534,  1.1,  0.9,  1.1,  0.9
   228, 'BUS 228     ',       150, 1,    0,    2, 1,    1.043885,   -8.143399,  1.1,  0.9,  1.1,  0.9
   230, 'BUS 230     ',       220, 1,    0,    4, 1,    1.007001,  -46.343334,  1.1,  0.9,  1.1,  0.9
   231, 'BUS 231     ',       110, 1,    0,    8, 1,    1.019763,   23.115587,  1.1,  0.9,  1.1,  0.9
   236, 'BUS 236     ',       220, 1,    0,    4, 1,     1.02885,   -53.54777,  1.1,  0.9,  1.1,  0.9
   243, 'BUS 243     ',       150, 1,    0,    8, 1,     1.01715,   17.760873,  1.1,  0.9,  1.1,  0.9
   244, 'BUS 244     ',       150, 1,    0,    8, 1,    1.018463,    6.917494,  1.1,  0.9,  1.1,  0.9
   249, 'BUS 249     ',       220, 1,    0,    4, 1,    1.005395,  -42.359771,  1.1,  0.9,  1.1,  0.9
   257, 'BUS 257     ',       220, 1,    0,    4, 1,    1.034093,  -45.514467,  1.1,  0.9,  1.1,  0.9
   261, 'BUS 261     ',       380, 1,    0,   10, 1,    1.056876,  -45.124465,  1.1,  0.9,  1.1,  0.9
   264, 'BUS 264     ',       220, 1,    0,    4, 1,     1.01505,  -46.406008,  1.1,  0.9,  1.1,  0.9
   266, 'BUS 266     ',       380, 1,    0,    4, 1,    1.059749,  -41.880587,  1.1,  0.9,  1.1,  0.9
   267, 'BUS 267     ',       220, 1,    0,    4, 1,    1.016267,  -50.549724,  1.1,  0.9,  1.1,  0.9
   268, 'BUS 268     ',       220, 1,    0,    8, 1,    1.046663,   26.481396,  1.1,  0.9,  1.1,  0.9
   271, 'BUS 271     ',       150, 1,    0,    2, 1,     1.03996,   -9.671728,  1.1,  0.9,  1.1,  0.9
   275, 'BUS 275     ',       150, 1,    0,    8, 1,    1.012638,     2.38281,  1.1,  0.9,  1.1,  0.9
   280, 'BUS 280     ',       220, 1,    0,    5, 1,    1.033127,  -11.186618,  1.1,  0.9,  1.1,  0.9
   281, 'BUS 281     ',       380, 1,    0,    8, 1,    1.035067,   14.007344,  1.1,  0.9,  1.1,  0.9
   283, 'BUS 283     ',       220, 1,    0,    5, 1,    1.036291,  -12.101832,  1.1,  0.9,  1.1,  0.9
   284, 'BUS 284     ',       220, 1,    0,    4, 1,    1.023939,  -48.338029,  1.1,  0.9,  1.1,  0.9
   292, 'BUS 292     ',       220, 1,    0,    5, 1,     1.04757,  -14.756324,  1.1,  0.9,  1.1,  0.9
   297, 'BUS 297     ',       150, 1,    0,    8, 1,    1.025769,    4.498938,  1.1,  0.9,  1.1,  0.9
   299, 'BUS 299     ',       380, 2,    0,    4, 1,    1.046197,  -45.832236,  1.1,  0.9,  1.1,  0.9
   304, 'BUS 304     ',       150, 1,    0,   10, 1,    0.994426,  -53.724872,  1.1,  0.9,  1.1,  0.9
   305, 'BUS 305     ',       220, 1,    0,    5, 1,    1.066061,  -32.494764,  1.1,  0.9,  1.1,  0.9
   306, 'BUS 306     ',       220, 1,    0,    5, 1,    1.029806,  -18.845783,  1.1,  0.9,  1.1,  0.9
   311, 'BUS 311     ',       150, 1,    0,    8, 1,    1.003155,   -2.003262,  1.1,  0.9,  1.1,  0.9
   312, 'BUS 312     ',       110, 1,    0,    8, 1,    1.054916,   11.672353,  1.1,  0.9,  1.1,  0.9
   314, 'BUS 314     ',       220, 1,    0,    5, 1,    1.000695,  -16.068608,  1.1,  0.9,  1.1,  0.9
   315, 'BUS 315     ',       220, 1,    0,   10, 1,    1.026865,  -35.887691,  1.1,  0.9,  1.1,  0.9
   317, 'BUS 317     ',       380, 1,    0,    2, 1,    1.017677,    6.394344,  1.1,  0.9,  1.1,  0.9
   322, 'BUS 322     ',       220, 1,    0,   10, 1,    0.963932,  -44.221789,  1.1,  0.9,  1.1,  0.9
   326, 'BUS 326     ',       220, 1,    0,    8, 1,    1.046796,   26.528223,  1.1,  0.9,  1.1,  0.9
   333, 'BUS 333     ',       220, 1,    0,    5, 1,    1.012818,  -42.225824,  1.1,  0.9,  1.1,  0.9
   338, 'BUS 338     ',       220, 2,    0,    5, 1,    1.049578,   -6.144398,  1.1,  0.9,  1.1,  0.9
   344, 'BUS 344     ',       150, 1,    0,    8, 1,    1.022517,   -1.388364,  1.1,  0.9,  1.1,  0.9
   346, 'BUS 346     ',       220, 1,    0,    5, 1,    1.039389,  -21.333666,  1.1,  0.9,  1.1,  0.9
   349, 'BUS 349     ',       150, 1,    0,    8, 1,    1.047326,    9.079132,  1.1,  0.9,  1.1,  0.9
   350, 'BUS 350     ',       220, 1,    0,    5, 1,    1.042975,  -24.324408,  1.1,  0.9,  1.1,  0.9
   351, 'BUS 351     ',       220, 1,    0,    8, 1,    1.028054,   18.540762,  1.1,  0.9,  1.1,  0.9
   352, 'BUS 352     ',       380, 2,    0,    5, 1,    1.054691,    0.247829,  1.1,  0.9,  1.1,  0.9
   360, 'BUS 360     ',       110, 1,    0,    8, 1,    1.047637,   11.384137,  1.1,  0.9,  1.1,  0.9
   367, 'BUS 367     ',       220, 1,    0,    5, 1,    1.071258,  -23.626071,  1.1,  0.9,  1.1,  0.9
   369, 'BUS 369     ',       220, 1,    0,    8, 1,    1.045084,   13.593865,  1.1,  0.9,  1.1,  0.9
   370, 'BUS 370     ',       150, 1,    0,    8, 1,     1.00045,   -2.194776,  1.1,  0.9,  1.1,  0.9
   377, 'BUS 377     ',       150, 1,    0,    8, 1,    1.021633,   11.131046,  1.1,  0.9,  1.1,  0.9
   380, 'BUS 380     ',       220, 1,    0,   10, 1,    1.004315,   -32.70603,  1.1,  0.9,  1.1,  0.9
   385, 'BUS 385     ',       380, 1,    0,    4, 1,    1.045045,  -49.151666,  1.1,  0.9,  1.1,  0.9
   387, 'BUS 387     ',       150, 1,    0,    8, 1,    1.040472,    6.605475,  1.1,  0.9,  1.1,  0.9
   389, 'BUS 389     ',       150, 2,    0,   10, 1,    1.020856,  -40.645901,  1.1,  0.9,  1.1,  0.9
   392, 'BUS 392     ',       150, 1,    0,    8, 1,    1.005558,   -0.515044,  1.1,  0.9,  1.1,  0.9
   395, 'BUS 395     ',       380, 1,    0,    8, 1,    1.034154,   15.282226,  1.1,  0.9,  1.1,  0.9
   401, 'BUS 401     ',       220, 1,    0,    5, 1,    1.028209,  -14.323194,  1.1,  0.9,  1.1,  0.9
   408, 'BUS 408     ',       220, 1,    0,    5, 1,    1.041485,  -11.562819,  1.1,  0.9,  1.1,  0.9
   410, 'BUS 410     ',       220, 1,    0,    5, 1,    1.035431,  -26.631809,  1.1,  0.9,  1.1,  0.9
   413, 'BUS 413     ',       220, 2,    0,    5, 1,    1.052152,   -6.629634,  1.1,  0.9,  1.1,  0.9
   415, 'BUS 415     ',       220, 1,    0,    4, 1,    1.029407,  -51.548505,  1.1,  0.9,  1.1,  0.9
   416, 'BUS 416     ',       220, 1,    0,    5, 1,    1.041782,   -6.713309,  1.1,  0.9,  1.1,  0.9
   420, 'BUS 420     ',       380, 1,    0,    8, 1,    1.049813,   18.568379,  1.1,  0.9,  1.1,  0.9
   425, 'BUS 425     ',       380, 1,    0,    1, 1,    1.008682,    6.877656,  1.1,  0.9,  1.1,  0.9
   426, 'BUS 426     ',       220, 1,    0,    5, 1,    1.040559,  -18.404022,  1.1,  0.9,  1.1,  0.9
   427, 'BUS 427     ',       380, 1,    0,    1, 1,    1.077855,  -35.447133,  1.1,  0.9,  1.1,  0.9
   429, 'BUS 429     ',       220, 1,    0,    4, 1,    1.018028,  -45.166294,  1.1,  0.9,  1.1,  0.9
   432, 'BUS 432     ',       380, 1,    0,    5, 1,     1.04617,    2.418195,  1.1,  0.9,  1.1,  0.9
   440, 'BUS 440     ',       220, 2,    0,    4, 1,    1.029422,  -36.073637,  1.1,  0.9,  1.1,  0.9
   441, 'BUS 441     ',       380, 1,    0,   10, 1,    1.037169,  -51.706225,  1.1,  0.9,  1.1,  0.9
   442, 'BUS 442     ',       220, 2,    0,    4, 1,    1.013689,  -46.010399,  1.1,  0.9,  1.1,  0.9
   444, 'BUS 444     ',       220, 1,    0,    5, 1,    1.037192,  -12.208318,  1.1,  0.9,  1.1,  0.9
   445, 'BUS 445     ',       220, 1,    0,    4, 1,    1.022265,  -44.379049,  1.1,  0.9,  1.1,  0.9
   449, 'BUS 449     ',       380, 1,    0,    5, 1,     1.02121,   -8.505204,  1.1,  0.9,  1.1,  0.9
   453, 'BUS 453     ',       380, 2,    0,    5, 1,    1.021096,   -7.822572,  1.1,  0.9,  1.1,  0.9
   455, 'BUS 455     ',       220, 1,    0,    5, 1,    1.043545,  -30.648087,  1.1,  0.9,  1.1,  0.9
   472, 'BUS 472     ',       150, 1,    0,    8, 1,    1.049863,    7.888585,  1.1,  0.9,  1.1,  0.9
   473, 'BUS 473     ',       220, 1,    0,    4, 1,    1.027789,  -45.658214,  1.1,  0.9,  1.1,  0.9
   477, 'BUS 477     ',       380, 1,    0,    4, 1,    1.049487,  -41.702128,  1.1,  0.9,  1.1,  0.9
   481, 'BUS 481     ',       220, 1,    0,    4, 1,    1.024242,  -47.836389,  1.1,  0.9,  1.1,  0.9
   483, 'BUS 483     ',       220, 1,    0,    4, 1,    1.022965,  -49.351603,  1.1,  0.9,  1.1,  0.9
   486, 'BUS 486     ',       150, 1,    0,    8, 1,    1.014633,    4.966833,  1.1,  0.9,  1.1,  0.9
   489, 'BUS 489     ',       220, 2,    0,    4, 1,    1.012805,  -47.213053,  1.1,  0.9,  1.1,  0.9
   490, 'BUS 490     ',       220, 1,    0,    5, 1,    1.036343,  -23.043793,  1.1,  0.9,  1.1,  0.9
   496, 'BUS 496     ',       150, 1,    0,    8, 1,    1.018474,   11.259593,  1.1,  0.9,  1.1,  0.9
   500, 'BUS 500     ',       220, 1,    0,    5, 1,    1.037969,   -15.06839,  1.1,  0.9,  1.1,  0.9
   502, 'BUS 502     ',       220, 1,    0,    5, 1,     1.04397,   -6.689582,  1.1,  0.9,  1.1,  0.9
   506, 'BUS 506     ',       380, 1,    0,    5, 1,    1.062897,   -9.075959,  1.1,  0.9,  1.1,  0.9
   509, 'BUS 509     ',       220, 1,    0,    4, 1,    1.015368,  -60.258851,  1.1,  0.9,  1.1,  0.9
   513, 'BUS 513     ',       220, 1,    0,    5, 1,    1.038862,   -7.455688,  1.1,  0.9,  1.1,  0.9
   516, 'BUS 516     ',       220, 2,    0,    5, 1,    1.074804,  -33.515516,  1.1,  0.9,  1.1,  0.9
   519, 'BUS 519     ',       220, 1,    0,    4, 1,    1.026737,  -49.849135,  1.1,  0.9,  1.1,  0.9
   520, 'BUS 520     ',       220, 1,    0,    5, 1,    1.048877,  -27.213193,  1.1,  0.9,  1.1,  0.9
   523, 'BUS 523     ',       150, 1,    0,    8, 1,    1.043256,    7.231269,  1.1,  0.9,  1.1,  0.9
   527, 'BUS 527     ',       220, 1,    0,    4, 1,    1.014388,  -46.235817,  1.1,  0.9,  1.1,  0.9
   536, 'BUS 536     ',       380, 1,    0,   10, 1,    1.059638,  -47.971384,  1.1,  0.9,  1.1,  0.9
   539, 'BUS 539     ',       150, 1,    0,    8, 1,    1.013211,    3.762537,  1.1,  0.9,  1.1,  0.9
   544, 'BUS 544     ',       380, 1,    0,   10, 1,    1.039051,  -51.441574,  1.1,  0.9,  1.1,  0.9
   548, 'BUS 548     ',       110, 1,    0,    8, 1,     1.03326,   16.142358,  1.1,  0.9,  1.1,  0.9
   549, 'BUS 549     ',       220, 1,    0,    5, 1,    1.070777,   -10.99741,  1.1,  0.9,  1.1,  0.9
   550, 'BUS 550     ',       220, 1,    0,    4, 1,    1.040041,  -45.192187,  1.1,  0.9,  1.1,  0.9
   552, 'BUS 552     ',       150, 1,    0,   10, 1,    0.969255,  -42.920126,  1.1,  0.9,  1.1,  0.9
   554, 'BUS 554     ',       220, 1,    0,    5, 1,    1.021838,  -20.831434,  1.1,  0.9,  1.1,  0.9
   556, 'BUS 556     ',       220, 1,    0,    5, 1,    1.036788,  -22.791951,  1.1,  0.9,  1.1,  0.9
   558, 'BUS 558     ',       150, 1,    0,    8, 1,    1.017158,   17.760895,  1.1,  0.9,  1.1,  0.9
   559, 'BUS 559     ',       150, 1,    0,    8, 1,     1.03524,    5.466244,  1.1,  0.9,  1.1,  0.9
   561, 'BUS 561     ',       220, 1,    0,    5, 1,    1.051908,  -11.066228,  1.1,  0.9,  1.1,  0.9
   564, 'BUS 564     ',       220, 2,    0,    5, 1,    1.069692,  -47.162859,  1.1,  0.9,  1.1,  0.9
   575, 'BUS 575     ',       220, 1,    0,    5, 1,    1.045123,  -11.170776,  1.1,  0.9,  1.1,  0.9
   577, 'BUS 577     ',       220, 1,    0,    8, 1,    1.045911,   26.397998,  1.1,  0.9,  1.1,  0.9
   579, 'BUS 579     ',       380, 1,    0,    4, 1,    1.021347,  -51.682309,  1.1,  0.9,  1.1,  0.9
   583, 'BUS 583     ',       220, 2,    0,    5, 1,    1.043394,  -15.595495,  1.1,  0.9,  1.1,  0.9
   585, 'BUS 585     ',       150, 1,    0,    8, 1,    1.032522,    3.857451,  1.1,  0.9,  1.1,  0.9
   593, 'BUS 593     ',       380, 1,    0,    8, 1,    1.054621,   12.781834,  1.1,  0.9,  1.1,  0.9
   594, 'BUS 594     ',       220, 1,    0,    5, 1,    1.038322,   -8.883436,  1.1,  0.9,  1.1,  0.9
   595, 'BUS 595     ',       220, 1,    0,    4, 1,    1.028698,  -49.910829,  1.1,  0.9,  1.1,  0.9
   597, 'BUS 597     ',       380, 1,    0,    4, 1,    1.059114,  -47.539487,  1.1,  0.9,  1.1,  0.9
   601, 'BUS 601     ',       220, 1,    0,    5, 1,    1.041109,  -14.413923,  1.1,  0.9,  1.1,  0.9
   602, 'BUS 602     ',       220, 1,    0,    4, 1,    1.023809,  -46.846316,  1.1,  0.9,  1.1,  0.9
   604, 'BUS 604     ',       380, 1,    0,    5, 1,    0.996802,  -12.954482,  1.1,  0.9,  1.1,  0.9
   608, 'BUS 608     ',       220, 1,    0,    5, 1,    1.067834,  -32.673267,  1.1,  0.9,  1.1,  0.9
   609, 'BUS 609     ',       220, 1,    0,    5, 1,    1.022581,  -14.805449,  1.1,  0.9,  1.1,  0.9
   610, 'BUS 610     ',       150, 1,    0,   10, 1,    0.990242,  -55.420594,  1.1,  0.9,  1.1,  0.9
   615, 'BUS 615     ',       220, 2,    0,    5, 1,     1.06611,  -10.707846,  1.1,  0.9,  1.1,  0.9
   616, 'BUS 616     ',       220, 2,    0,    5, 1,    1.049295,  -12.996312,  1.1,  0.9,  1.1,  0.9
   618, 'BUS 618     ',       380, 2,    0,    4, 1,    1.028233,  -48.626653,  1.1,  0.9,  1.1,  0.9
   619, 'BUS 619     ',       220, 1,    0,    5, 1,    1.045204,  -25.296091,  1.1,  0.9,  1.1,  0.9
   621, 'BUS 621     ',       220, 1,    0,    4, 1,    1.019534,  -51.372282,  1.1,  0.9,  1.1,  0.9
   628, 'BUS 628     ',       220, 2,    0,   10, 1,     0.98494,  -34.539287,  1.1,  0.9,  1.1,  0.9
   639, 'BUS 639     ',       220, 2,    0,    5, 1,    1.046182,  -30.213914,  1.1,  0.9,  1.1,  0.9
   641, 'BUS 641     ',       220, 1,    0,    5, 1,      1.0383,  -13.886781,  1.1,  0.9,  1.1,  0.9
   642, 'BUS 642     ',       380, 2,    0,    4, 1,    1.036757,  -50.092904,  1.1,  0.9,  1.1,  0.9
   643, 'BUS 643     ',       150, 1,    0,    8, 1,    1.007039,   -1.733141,  1.1,  0.9,  1.1,  0.9
   649, 'BUS 649     ',       220, 1,    0,    4, 1,    1.025052,  -48.149342,  1.1,  0.9,  1.1,  0.9
   650, 'BUS 650     ',       110, 1,    0,    8, 1,    1.020577,   12.404841,  1.1,  0.9,  1.1,  0.9
   656, 'BUS 656     ',       220, 1,    0,    8, 1,    1.028027,   18.542452,  1.1,  0.9,  1.1,  0.9
   658, 'BUS 658     ',       220, 1,    0,    5, 1,    1.033358,  -17.451459,  1.1,  0.9,  1.1,  0.9
   659, 'BUS 659     ',       380, 1,    0,    2, 1,    1.017121,    6.345431,  1.1,  0.9,  1.1,  0.9
...
0 / END OF BUS DATA, BEGIN LOAD DATA
     3,  1, 1,    0,    5,       151,      48.8, 0, 0, 0, 0, 1, 1, 0
     4,  1, 1,    0,    5,    171.41,      23.4, 0, 0, 0, 0, 1, 1, 0
    10,  1, 1,    0,    5,       134,      24.7, 0, 0, 0, 0, 1, 1, 0
    15,  1, 1,    0,    4,     59.67,      26.7, 0, 0, 0, 0, 1, 1, 0
    21,  1, 1,    0,    5,     161.2,      39.3, 0, 0, 0, 0, 1, 1, 0
    26,  1, 1,    0,    5,     167.3,      54.8, 0, 0, 0, 0, 1, 1, 0
    29,  1, 1,    0,    5,     152.9,      49.4, 0, 0, 0, 0, 1, 1, 0
    38,  1, 1,    0,    8,     42.75,      12.8, 0, 0, 0, 0, 1, 1, 0
    42,  1, 1,    0,    4,     20.82,       7.9, 0, 0, 0, 0, 1, 1, 0
    52,  1, 1,    0,    8,     127.6,      31.8, 0, 0, 0, 0, 1, 1, 0
    53,  1, 1,    0,    5,     48.65,      16.1, 0, 0, 0, 0, 1, 1, 0
    59,  1, 1,    0,    5,     119.2,      20.7, 0, 0, 0, 0, 1, 1, 0
    69,  1, 1,    0,    8,     62.87,      20.5, 0, 0, 0, 0, 1, 1, 0
    71,  1, 1,    0,    8,     126.3,      42.4, 0, 0, 0, 0, 1, 1, 0
    72,  1, 1,    0,    4,      6.91,      -4.6, 0, 0, 0, 0, 1, 1, 0
    75,  1, 1,    0,    4,     38.74,       6.1, 0, 0, 0, 0, 1, 1, 0
    76,  1, 1,    0,    8,     22.13,      10.7, 0, 0, 0, 0, 1, 1, 0
    90,  1, 1,    0,    5,    363.25,    115.39, 0, 0, 0, 0, 1, 1, 0
    96,  1, 1,    0,    5,      -8.4,     28.66, 0, 0, 0, 0, 1, 1, 0
   118,  1, 1,    0,    5,    704.53,    -35.33, 0, 0, 0, 0, 1, 1, 0
   128,  1, 1,    0,    5,     23.73,      12.7, 0, 0, 0, 0, 1, 1, 0
   133,  1, 1,    0,    8,     38.14,      12.5, 0, 0, 0, 0, 1, 1, 0
   138,  1, 1,    0,   10,    -75.38,       7.8, 0, 0, 0, 0, 1, 1, 0
   139,  1, 1,    0,    8,   -764.34,     66.91, 0, 0, 0, 0, 1, 1, 0
   145,  1, 1,    0,    5,     38.34,       5.6, 0, 0, 0, 0, 1, 1, 0
   148,  1, 1,    0,    5,     32.34,        12, 0, 0, 0, 0, 1, 1, 0
   163,  1, 1,    0,    5,    147.76,     32.73, 0, 0, 0, 0, 1, 1, 0
   171,  1, 1,    0,    5,     100.8,      13.2, 0, 0, 0, 0, 1, 1, 0
   172,  1, 1,    0,    4,     111.7,     10.96, 0, 0, 0, 0, 1, 1, 0
   174,  1, 1,    0,    5,     370.5,       -17, 0, 0, 0, 0, 1, 1, 0
   177,  1, 1,    0,   10,      94.9,      36.2, 0, 0, 0, 0, 1, 1, 0
   188,  1, 1,    0,    5,     36.84,      13.9, 0, 0, 0, 0, 1, 1, 0
   195,  1, 1,    0,    5,     73.14,     21.55, 0, 0, 0, 0, 1, 1, 0
   198,  1, 1,    0,    5,     39.74,      11.8, 0, 0, 0, 0, 1, 1, 0
   199,  1, 1,    0,    8,      86.8,      28.4, 0, 0, 0, 0, 1, 1, 0
   205,  1, 1,    0,    8,     46.15,      18.2, 0, 0, 0, 0, 1, 1, 0
   207,  1, 1,    0,    5,    321.98,      84.4, 0, 0, 0, 0, 1, 1, 0
   211,  1, 1,    0,    8,     75.28,      19.2, 0, 0, 0, 0, 1, 1, 0
   216,  1, 1,    0,    5,     155.6,      54.7, 0, 0, 0, 0, 1, 1, 0
   217,  1, 1,    0,    5,     105.2,       0.1, 0, 0, 0, 0, 1, 1, 0
   218,  1, 1,    0,    5,     69.83,     15.12, 0, 0, 0, 0, 1, 1, 0
   228,  1, 1,    0,    2,    -23.43,      57.4, 0, 0, 0, 0, 1, 1, 0
   230,  1, 1,    0,    4,    152.07,     22.52, 0, 0, 0, 0, 1, 1, 0
   231,  1, 1,    0,    8,     -0.13,        -1, 0, 0, 0, 0, 1, 1, 0
   236,  1, 1,    0,    4,     45.85,         7, 0, 0, 0, 0, 1, 1, 0
   257,  1, 1,    0,    4,     113.9,      24.5, 0, 0, 0, 0, 1, 1, 0
   264,  1, 1,    0,    4,     38.74,         9, 0, 0, 0, 0, 1, 1, 0
   267,  1, 1,    0,    4,     103.8,       2.7, 0, 0, 0, 0, 1, 1, 0
   268,  1, 1,    0,    8,     -0.13,        -1, 0, 0, 0, 0, 1, 1, 0
   271,  1, 1,    0,    2,      96.7,      26.8, 0, 0, 0, 0, 1, 1, 0
   275,  1, 1,    0,    8,     102.1,      25.3, 0, 0, 0, 0, 1, 1, 0
   280,  1, 1,    0,    5,     119.6,      29.6, 0, 0, 0, 0, 1, 1, 0
   283,  1, 1,    0,    5,     27.33,      11.9, 0, 0, 0, 0, 1, 1, 0
   284,  1, 1,    0,    4,     191.2,      -3.4, 0, 0, 0, 0, 1, 1, 0
   292,  1, 1,    0,    5,     13.82,       1.4, 0, 0, 0, 0, 1, 1, 0
   297,  1, 1,    0,    8,     23.73,       9.4, 0, 0, 0, 0, 1, 1, 0
   304,  1, 1,    0,   10,       2.2,       0.5, 0, 0, 0, 0, 1, 1, 0
   305,  1, 1,    0,    5,       103,        12, 0, 0, 0, 0, 1, 1, 0
   311,  1, 1,    0,    8,     42.05,      17.2, 0, 0, 0, 0, 1, 1, 0
   312,  1, 1,    0,    8,     -0.16,     -2.91, 0, 0, 0, 0, 1, 1, 0
   314,  1, 1,    0,    5,     163.1,      46.3, 0, 0, 0, 0, 1, 1, 0
   322,  1, 1,    0,   10,     303.8,      85.4, 0, 0, 0, 0, 1, 1, 0
   333,  1, 1,    0,    5,     524.5,        43, 0, 0, 0, 0, 1, 1, 0
   344,  1, 1,    0,    8,     372.8,     147.5, 0, 0, 0, 0, 1, 1, 0
   346,  1, 1,    0,    5,     197.5,      48.3, 0, 0, 0, 0, 1, 1, 0
   350,  1, 1,    0,    5,     110.4,      26.2, 0, 0, 0, 0, 1, 1, 0
   351,  1, 1,    0,    8,     -0.15,     -1.93, 0, 0, 0, 0, 1, 1, 0
   360,  1, 1,    0,    8,     35.54,      11.5, 0, 0, 0, 0, 1, 1, 0
   367,  1, 1,    0,    5,     65.17,     -51.5, 0, 0, 0, 0, 1, 1, 0
   370,  1, 1,    0,    8,     56.76,      23.2, 0, 0, 0, 0, 1, 1, 0
   377,  1, 1,    0,    8,     -0.18,        -1, 0, 0, 0, 0, 1, 1, 0
   380,  1, 1,    0,   10,    -95.71,      -2.8, 0, 0, 0, 0, 1, 1, 0
   387,  1, 1,    0,    8,     -0.19,     -4.38, 0, 0, 0, 0, 1, 1, 0
   392,  1, 1,    0,    8,     134.1,      34.2, 0, 0, 0, 0, 1, 1, 0
   401,  1, 1,    0,    5,      56.5,     36.29, 0, 0, 0, 0, 1, 1, 0
   408,  1, 1,    0,    5,     129.1,       7.4, 0, 0, 0, 0, 1, 1, 0
   410,  1, 1,    0,    5,    170.89,     50.38, 0, 0, 0, 0, 1, 1, 0
   415,  1, 1,    0,    4,      4.71,       0.7, 0, 0, 0, 0, 1, 1, 0
   416,  1, 1,    0,    5,     70.68,      13.5, 0, 0, 0, 0, 1, 1, 0
   426,  1, 1,    0,    5,     123.1,       6.5, 0, 0, 0, 0, 1, 1, 0
   429,  1, 1,    0,    4,     26.93,     -22.4, 0, 0, 0, 0, 1, 1, 0
   445,  1, 1,    0,    4,     36.74,      10.3, 0, 0, 0, 0, 1, 1, 0
   455,  1, 1,    0,    5,    274.32,      5.66, 0, 0, 0, 0, 1, 1, 0
   472,  1, 1,    0,    8,     336.2,     131.6, 0, 0, 0, 0, 1, 1, 0
   473,  1, 1,    0,    4,    -22.95,     -3.72, 0, 0, 0, 0, 1, 1, 0
   483,  1, 1,    0,    4,     57.26,      15.6, 0, 0, 0, 0, 1, 1, 0
   486,  1, 1,    0,    8,      7.01,         2, 0, 0, 0, 0, 1, 1, 0
   490,  1, 1,    0,    5,     20.52,         4, 0, 0, 0, 0, 1, 1, 0
   500,  1, 1,    0,    5,     144.4,      35.5, 0, 0, 0, 0, 1, 1, 0
   509,  1, 1,    0,    4,     77.29,         7, 0, 0, 0, 0, 1, 1, 0
   513,  1, 1,    0,    5,     57.46,      17.1, 0, 0, 0, 0, 1, 1, 0
   519,  1, 1,    0,    4,     207.2,       9.4, 0, 0, 0, 0, 1, 1, 0
   520,  1, 1,    0,    5,     118.5,      20.4, 0, 0, 0, 0, 1, 1, 0
   523,  1, 1,    0,    8,     189.9,      74.7, 0, 0, 0, 0, 1, 1, 0
   527,  1, 1,    0,    4,     277.7,      45.4, 0, 0, 0, 0, 1, 1, 0
   536,  1, 1,    0,   10,      87.8,      -1.4, 0, 0, 0, 0, 1, 1, 0
   539,  1, 1,    0,    8,     57.96,      18.9, 0, 0, 0, 0, 1, 1, 0
   544,  1, 1,    0,   10,     79.69,      39.6, 0, 0, 0, 0, 1, 1, 0
   548,  1, 1,    0,    8,     30.93,       8.9, 0, 0, 0, 0, 1, 1, 0
   552,  1, 1,    0,   10,     180.8,      90.8, 0, 0, 0, 0, 1, 1, 0
   556,  1, 1,    0,    5,     16.52,         9, 0, 0, 0, 0, 1, 1, 0
   558,  1, 1,    0,    8,     -0.18,     -3.57, 0, 0, 0, 0, 1, 1, 0
   559,  1, 1,    0,    8,     42.25,      16.6, 0, 0, 0, 0, 1, 1, 0
   577,  1, 1,    0,    8,     -0.13,        -1, 0, 0, 0, 0, 1, 1, 0
   579,  1, 1,    0,    4,     17.32,       6.6, 0, 0, 0, 0, 1, 1, 0
   585,  1, 1,    0,    8,     21.12,       8.3, 0, 0, 0, 0, 1, 1, 0
   594,  1, 1,    0,    5,     67.57,        17, 0, 0, 0, 0, 1, 1, 0
   595,  1, 1,    0,    4,     47.55,       5.3, 0, 0, 0, 0, 1, 1, 0
   597,  1, 1,    0,    4,     33.34,      15.7, 0, 0, 0, 0, 1, 1, 0
   601,  1, 1,    0,    5,     140.6,      42.6, 0, 0, 0, 0, 1, 1, 0
   602,  1, 1,    0,    4,     110.8,      -8.8, 0, 0, 0, 0, 1, 1, 0
   604,  1, 1,    0,    5,     33.24,       4.4, 0, 0, 0, 0, 1, 1, 0
   608,  1, 1,    0,    5,     150.9,      10.4, 0, 0, 0, 0, 1, 1, 0
   619,  1, 1,    0,    5,     72.88,      14.4, 0, 0, 0, 0, 1, 1, 0
   621,  1, 1,    0,    4,     21.42,       8.1, 0, 0, 0, 0, 1, 1, 0
   641,  1, 1,    0,    5,     45.32,      18.5, 0, 0, 0, 0, 1, 1, 0
   643,  1, 1,    0,    8,     15.52,       6.3, 0, 0, 0, 0, 1, 1, 0
   649,  1, 1,    0,    4,     40.94,      19.2, 0, 0, 0, 0, 1, 1, 0
   650,  1, 1,    0,    8,     17.22,       4.4, 0, 0, 0, 0, 1, 1, 0
   656,  1, 1,    0,    8,     -0.15,     -1.93, 0, 0, 0, 0, 1, 1, 0
   658,  1, 1,    0,    5,     258.4,      66.7, 0, 0, 0, 0, 1, 1, 0
   666,  1, 1,    0,    5,     -5.61,     -2.79, 0, 0, 0, 0, 1, 1, 0
   676,  1, 1,    0,    8,     109.3,      35.4, 0, 0, 0, 0, 1, 1, 0
   678,  1, 1,    0,    5,     232.1,      89.8, 0, 0, 0, 0, 1, 1, 0
   695,  1, 1,    0,    4,     96.41,      26.5, 0, 0, 0, 0, 1, 1, 0
   699,  1, 1,    0,    4,     36.54,       8.4, 0, 0, 0, 0, 1, 1, 0
   706,  1, 1,    0,    4,     114.8,      22.8, 0, 0, 0, 0, 1, 1, 0
   707,  1, 1,    0,    5,     83.99,      21.2, 0, 0, 0, 0, 1, 1, 0
   710,  1, 1,    0,    4,     76.38,       5.1, 0, 0, 0, 0, 1, 1, 0
   712,  1, 1,    0,    8,     110.4,      41.9, 0, 0, 0, 0, 1, 1, 0
   718,  1, 1,    0,    5,    135.11,        41, 0, 0, 0, 0, 1, 1, 0
   726,  1, 1,    0,    5,     400.3,     189.9, 0, 0, 0, 0, 1, 1, 0
   733,  1, 1,    0,    8,     58.36,      10.7, 0, 0, 0, 0, 1, 1, 0
   747,  1, 1,    0,    5,     69.58,        16, 0, 0, 0, 0, 1, 1, 0
   754,  1, 1,    0,    4,     132.1,      32.4, 0, 0, 0, 0, 1, 1, 0
   769,  1, 1,    0,    5,    152.57,        40, 0, 0, 0, 0, 1, 1, 0
   772,  1, 1,    0,    5,     343.9,     141.9, 0, 0, 0, 0, 1, 1, 0
   775,  1, 1,    0,    8,    -55.14,    -27.14, 0, 0, 0, 0, 1, 1, 0
   784,  1, 1,    0,    8,       -26,    -14.72, 0, 0, 0, 0, 1, 1, 0
   790,  1, 1,    0,    8,     -0.15,        -1, 0, 0, 0, 0, 1, 1, 0
   792,  1, 1,    0,    2,     295.3,      41.9, 0, 0, 0, 0, 1, 1, 0
   797,  1, 1,    0,    4,         2,     114.6, 0, 0, 0, 0, 1, 1, 0
   800,  1, 1,    0,    5,     50.56,        18, 0, 0, 0, 0, 1, 1, 0
   805,  1, 1,    0,    5,     124.5,      29.6, 0, 0, 0, 0, 1, 1, 0
   808,  1, 1,    0,    4,     24.53,       8.6, 0, 0, 0, 0, 1, 1, 0
   814,  1, 1,    0,    4,     287.7,      16.3, 0, 0, 0, 0, 1, 1, 0
   838,  1, 1,    0,    8,    615.81,    286.69, 0, 0, 0, 0, 1, 1, 0
   854,  1, 1,    0,    4,     49.96,       7.5, 0, 0, 0, 0, 1, 1, 0
   869,  1, 1,    0,    4,      94.2,       5.5, 0, 0, 0, 0, 1, 1, 0
   870,  1, 1,    0,    5,       110,       3.4, 0, 0, 0, 0, 1, 1, 0
   871,  1, 1,    0,    5,    108.89,    -21.76, 0, 0, 0, 0, 1, 1, 0
   883,  1, 1,    0,    5,     192.5,      78.3, 0, 0, 0, 0, 1, 1, 0
   898,  1, 1,    0,    8,     25.63,       7.9, 0, 0, 0, 0, 1, 1, 0
   903,  1, 1,    0,    5,     82.69,      20.1, 0, 0, 0, 0, 1, 1, 0
   905,  1, 1,    0,    5,    631.71,    -54.16, 0, 0, 0, 0, 1, 1, 0
   908,  1, 1,    0,    5,     125.9,      -0.5, 0, 0, 0, 0, 1, 1, 0
   920,  1, 1,    0,    5,     34.44,       8.5, 0, 0, 0, 0, 1, 1, 0
   923,  1, 1,    0,    5,     62.07,      14.7, 0, 0, 0, 0, 1, 1, 0
   928,  1, 1,    0,    8,     112.9,      19.3, 0, 0, 0, 0, 1, 1, 0
   929,  1, 1,    0,    4,     43.75,      12.4, 0, 0, 0, 0, 1, 1, 0
   932,  1, 1,    0,    4,     77.59,      12.3, 0, 0, 0, 0, 1, 1, 0
   947,  1, 1,    0,    4,      90.7,       5.8, 0, 0, 0, 0, 1, 1, 0
   948,  1, 1,    0,   10,     15.82,         4, 0, 0, 0, 0, 1, 1, 0
   950,  1, 1,    0,    8,     69.08,      22.6, 0, 0, 0, 0, 1, 1, 0
   953,  1, 1,    0,    5,     108.7,    -12.15, 0, 0, 0, 0, 1, 1, 0
   954,  1, 1,    0,    5,     66.27,      13.6, 0, 0, 0, 0, 1, 1, 0
   955,  1, 1,    0,    2,     244.2,     152.7, 0, 0, 0, 0, 1, 1, 0
   957,  1, 1,    0,    4,     65.77,      16.1, 0, 0, 0, 0, 1, 1, 0
   962,  1, 1,    0,    4,     42.55,      17.1, 0, 0, 0, 0, 1, 1, 0
   964,  1, 1,    0,    5,      88.5,      16.5, 0, 0, 0, 0, 1, 1, 0
   970,  1, 1,    0,    4,     62.27,      -2.1, 0, 0, 0, 0, 1, 1, 0
   980,  1, 1,    0,    5,     14.71,       4.6, 0, 0, 0, 0, 1, 1, 0
   986,  1, 1,    0,    4,     15.98,      0.86, 0, 0, 0, 0, 1, 1, 0
   999,  1, 1,    0,    8,     20.02,       6.8, 0, 0, 0, 0, 1, 1, 0
  1010,  1, 1,    0,    8,     21.32,       7.3, 0, 0, 0, 0, 1, 1, 0
  1011,  1, 1,    0,    8,      -0.2,        -1, 0, 0, 0, 0, 1, 1, 0
  1013,  1, 1,    0,    4,    136.06,      40.4, 0, 0, 0, 0, 1, 1, 0
  1015,  1, 1,    0,    5,     44.55,         0, 0, 0, 0, 0, 1, 1, 0
  1020,  1, 1,    0,    8,      8.21,      3.31, 0, 0, 0, 0, 1, 1, 0
  1025,  1, 1,    0,   10,     241.4,      -2.5, 0, 0, 0, 0, 1, 1, 0
  1026,  1, 1,    0,    5,     201.4,        53, 0, 0, 0, 0, 1, 1, 0
  1027,  1, 1,    0,    5,     -5.91,     -2.33, 0, 0, 0, 0, 1, 1, 0
  1033,  1, 1,    0,    5,     26.33,       5.3, 0, 0, 0, 0, 1, 1, 0
  1035,  1, 1,    0,    5,     382.5,      57.9, 0, 0, 0, 0, 1, 1, 0
  1039,  1, 1,    0,    5,     34.64,        -0, 0, 0, 0, 0, 1, 1, 0
  1040,  1, 1,    0,    5,     31.94,       8.8, 0, 0, 0, 0, 1, 1, 0
  1046,  1, 1,    0,    8,     47.05,      19.3, 0, 0, 0, 0, 1, 1, 0
  1052,  1, 1,    0,    8,     67.48,      32.6, 0, 0, 0, 0, 1, 1, 0
  1064,  1, 1,    0,    4,     215.2,      -7.6, 0, 0, 0, 0, 1, 1, 0
  1065,  1, 1,    0,    4,      89.6,        20, 0, 0, 0, 0, 1, 1, 0
  1074,  1, 1,    0,    4,     403.9,      -0.1, 0, 0, 0, 0, 1, 1, 0
  1081,  1, 1,    0,    5,    277.86,     58.95, 0, 0, 0, 0, 1, 1, 0
  1086,  1, 1,    0,    4,     12.01,       5.6, 0, 0, 0, 0, 1, 1, 0
  1090,  1, 1,    0,    5,     56.06,      18.7, 0, 0, 0, 0, 1, 1, 0
  1094,  1, 1,    0,    8,     28.53,      11.3, 0, 0, 0, 0, 1, 1, 0
  1105,  1, 1,    0,    5,     29.83,       7.3, 0, 0, 0, 0, 1, 1, 0
  1106,  1, 1,    0,    8,     192.4,      63.9, 0, 0, 0, 0, 1, 1, 0
  1109,  1, 1,    0,   10,    -54.06,      13.1, 0, 0, 0, 0, 1, 1, 0
  1114,  1, 1,    0,    4,     59.27,       5.1, 0, 0, 0, 0, 1, 1, 0
  1115,  1, 1,    0,    4,    -40.54,       9.3, 0, 0, 0, 0, 1, 1, 0
...
0 / END OF LOAD DATA, BEGIN FIXED SHUNT DATA
     3, 1, 1,       0,    4.69
     4, 1, 1,       0,     2.1
    10, 1, 1,       0,   12.44
    15, 1, 1,       0,   12.84
    21, 1, 1,       0,   30.71
    22, 1, 1,       0,    0.85
    26, 1, 1,       0,  110.54
    29, 1, 1,       0,   27.65
    38, 1, 1,       0,    13.3
    42, 1, 1,       0,   26.89
    44, 1, 1,       0,    7.27
    52, 1, 1,       0,   20.51
    53, 1, 1,       0,    7.14
    58, 1, 1,       0,    2.31
    59, 1, 1,       0,    3.31
    69, 1, 1,       0,    1.15
    71, 1, 1,       0,   55.24
    72, 1, 1,       0,    5.75
    75, 1, 1,       0,    1.17
    76, 1, 1,       0,   14.21
    77, 1, 1,       0,    0.73
    89, 1, 1, 0.199111,  4.5306
    90, 1, 1,       0,    3.95
    91, 1, 1,       0,    0.02
    96, 1, 1,       0,    3.49
   113, 1, 1,       0, 6.53271
   115, 1, 1,       0,    4.21
   118, 1, 1,       0, 13.1028
   128, 1, 1,       0,    0.52
   130, 1, 1, 0.135375, 47.7507
   132, 1, 1,       0,   21.39
   133, 1, 1,       0,    6.28
   138, 1, 1,       0,    29.9
   139, 1, 1,       0,   33.47
   140, 1, 1,       0,    4.14
   145, 1, 1,       0,    7.64
   148, 1, 1,       0,     6.1
   163, 1, 1,       0,    8.34
   164, 1, 1,       0,    5.17
   171, 1, 1,       0,    5.24
   172, 1, 1,       0,    4.22
   174, 1, 1,       0,    9.91
   177, 1, 1,       0,   16.46
   184, 1, 1,       0,    2.42
   188, 1, 1,       0,     3.3
   195, 1, 1,       0,    8.52
   196, 1, 1,       0,   12.48
   198, 1, 1,       0,    1.44
   199, 1, 1,       0,    1.34
   205, 1, 1,       0,    1.29
   207, 1, 1,       0,    1.34
   211, 1, 1,       0,     1.9
   216, 1, 1,       0,    2.21
   217, 1, 1,       0,    7.36
   218, 1, 1,       0,    2.23
   225, 1, 1,       0,    1.15
   230, 1, 1,       0,    7.87
   236, 1, 1,       0,    1.05
   243, 1, 1,       0,   13.49
   244, 1, 1,       0,    0.68
   249, 1, 1,       0,    26.3
   257, 1, 1,       0,    6.72
   261, 1, 1,       0,    1.29
   264, 1, 1,       0,    0.57
   266, 1, 1,       0,  140.96
   267, 1, 1,       0,    3.33
   275, 1, 1,       0,    1.11
   280, 1, 1,       0,    5.34
   281, 1, 1,       0,   18.07
   283, 1, 1,       0,    1.17
   284, 1, 1,       0,   19.21
   292, 1, 1,       0,     0.7
   297, 1, 1,       0,    1.45
   304, 1, 1,       0,    0.21
   305, 1, 1,       0,    0.63
   306, 1, 1,       0,    4.76
   311, 1, 1,       0,    1.31
   312, 1, 1,       0,    0.43
   314, 1, 1,       0,    10.6
   315, 1, 1,       0,    2.13
   317, 1, 1, 0.045946, -1.82203
   322, 1, 1,       0,    3.63
   333, 1, 1,       0,    6.85
   344, 1, 1,       0,   27.73
   346, 1, 1,       0,    0.71
   349, 1, 1,       0,   15.15
   350, 1, 1,       0,    5.62
   360, 1, 1,       0,    3.65
   367, 1, 1,       0,    4.85
   369, 1, 1,       0,    3.78
   370, 1, 1,       0,    0.49
   380, 1, 1,       0,    7.25
   385, 1, 1,       0,  105.84
   392, 1, 1,       0,    0.75
   395, 1, 1,       0,    7.85
   401, 1, 1,       0,    3.08
   408, 1, 1,       0,    0.04
   410, 1, 1,       0,    6.44
   415, 1, 1,       0,   11.39
   416, 1, 1,       0,    6.96
   425, 1, 1,       0,    2.72
   426, 1, 1,       0,    3.25
   427, 1, 1,       0,    1.24
   429, 1, 1,       0,    4.95
   432, 1, 1,       0, 68.5177
   441, 1, 1, 0.199768, 27.8885
   444, 1, 1,       0,    2.45
   445, 1, 1,       0,     8.1
   449, 1, 1,       0,   29.42
   455, 1, 1,       0,   13.24
   472, 1, 1,       0,   64.01
   473, 1, 1,       0,   14.34
   477, 1, 1,       0,   70.37
   481, 1, 1,       0,   17.44
   483, 1, 1,       0,    3.43
   486, 1, 1,       0,    0.44
   490, 1, 1,       0,    2.77
   496, 1, 1,       0,   10.04
   500, 1, 1,       0,    7.66
   502, 1, 1,       0,    1.96
   506, 1, 1,       0,     0.4
   509, 1, 1,       0,    17.6
   513, 1, 1,       0,    1.61
   519, 1, 1,       0,    8.77
   520, 1, 1,       0,    2.57
   523, 1, 1,       0,    26.2
   527, 1, 1,       0,     0.7
   536, 1, 1, 0.079073, 36.0473
   539, 1, 1,       0,   14.91
   544, 1, 1,       0,   18.83
   548, 1, 1,       0,    0.45
   549, 1, 1,       0,    5.15
   550, 1, 1,       0,      10
   552, 1, 1,       0,    2.42
   554, 1, 1,       0,    1.97
   556, 1, 1,       0,    1.17
   561, 1, 1,       0,    0.32
   575, 1, 1,       0,    0.67
   579, 1, 1,       0,   16.52
   585, 1, 1,       0,    4.26
   593, 1, 1,       0,    29.2
   594, 1, 1,       0,    5.75
   595, 1, 1,       0,    7.59
   597, 1, 1,       0,   64.15
   601, 1, 1,       0,    5.71
   602, 1, 1,       0,    3.15
   604, 1, 1,       0,   24.54
   608, 1, 1,       0,    4.77
   609, 1, 1,       0,    5.67
   610, 1, 1,       0,    0.91
   619, 1, 1,       0,    2.96
   621, 1, 1,       0,    7.38
   641, 1, 1,       0,    0.74
   643, 1, 1,       0,     0.6
   649, 1, 1,       0,     5.2
   650, 1, 1,       0,    1.71
   658, 1, 1,       0,    5.87
   659, 1, 1, 0.174507, 73.9771
   661, 1, 1,       0,     0.6
   662, 1, 1,       0,    4.14
   666, 1, 1,       0,  150.93
   676, 1, 1,       0,    1.91
   678, 1, 1,       0,    0.09
   687, 1, 1,       0,     5.6
   693, 1, 1,       0,   93.75
   695, 1, 1,       0,    0.08
   699, 1, 1,       0,    6.58
   702, 1, 1,       0,    0.48
   706, 1, 1,       0,    5.66
   707, 1, 1,       0,    5.36
   710, 1, 1,       0,    3.97
   712, 1, 1,       0,    1.88
   718, 1, 1,       0,    5.31
   720, 1, 1,       0, 23.5541
   722, 1, 1,       0,    0.78
   726, 1, 1,       0,    0.53
   731, 1, 1,       0,   61.48
   733, 1, 1,       0,    8.41
   742, 1, 1,       0,    2.83
   747, 1, 1,       0,    3.03
   750, 1, 1,       0,   18.63
   754, 1, 1,       0,   58.29
   766, 1, 1,       0,    7.85
   769, 1, 1,       0,    6.12
   772, 1, 1,       0,    5.55
   785, 1, 1,       0,    4.03
   789, 1, 1,       0,    6.63
   790, 1, 1,       0,    0.42
   797, 1, 1,       0,   16.15
   800, 1, 1,       0,    0.11
   804, 1, 1,       0,    7.26
   805, 1, 1,       0,    15.4
   806, 1, 1,       0,   32.02
   808, 1, 1,       0,    7.01
   809, 1, 1,       0, 58.0887
   814, 1, 1,       0,   12.86
   819, 1, 1,       0,    0.22
   838, 1, 1,       0,  101.04
   839, 1, 1,       0, 8.17514
   854, 1, 1,       0,    8.86
...
0 / END OF FIXED SHUNT DATA, BEGIN GENERATOR DATA
    32,  1,         8,      0.06,      5.91,     -4.56, 1.006206, 0,     100, 0, 1, 0, 0, 1, 1, 100,      16.2,         0, 1, 1, 0, 1, 0, 1, 0, 1, 0, 1
    33,  1,       5.3,      0.41,      2.27,     -1.08, 1.031909, 0,     100, 0, 1, 0, 0, 1, 1, 100,      5.38,         0, 1, 1, 0, 1, 0, 1, 0, 1, 0, 1
    39,  1,      34.3,      4.84,     17.76,     -7.14, 1.005551, 0,     100, 0, 1, 0, 0, 1, 1, 100,        40,         0, 1, 1, 0, 1, 0, 1, 0, 1, 0, 1
    51,  1,    -144.5,      0.55,      5.48,     -4.19,  1.01198, 0,     100, 0, 1, 0, 0, 1, 1, 100,       100,   -192.67, 1, 1, 0, 1, 0, 1, 0, 1, 0, 1
   124,  1,     861.3,     51.52,    440.32,   -172.59, 1.079291, 0,     100, 0, 1, 0, 0, 1, 1, 100,      1000,    333.33, 1, 1, 0, 1, 0, 1, 0, 1, 0, 1
   150,  1,     67.29,     -9.79,     77.09,    -22.54, 1.062067, 0,     100, 0, 1, 0, 0, 1, 1, 100,       160,         0, 1, 1, 0, 1, 0, 1, 0, 1, 0, 1
   179,  1,    -179.2,    -33.84,     52.64,    -51.72, 1.048817, 0,     100, 0, 1, 0, 0, 1, 1, 100,       100,   -238.93, 1, 1, 0, 1, 0, 1, 0, 1, 0, 1
   194,  1,     268.6,     43.34,    130.19,    -53.53, 1.029584, 0,     100, 0, 1, 0, 0, 1, 1, 100,       300,       100, 1, 1, 0, 1, 0, 1, 0, 1, 0, 1
   201,  1,       5.2,      0.39,      2.27,     -1.07, 1.024675, 0,     100, 0, 1, 0, 0, 1, 1, 100,      5.37,         0, 1, 1, 0, 1, 0, 1, 0, 1, 0, 1
   221,  1,   -155.39,     91.05,    183.92,     -65.3, 0.996091, 0,     100, 0, 1, 0, 0, 1, 1, 100,       100,   -207.18, 1, 1, 0, 1, 0, 1, 0, 1, 0, 1
   299,  1,     975.9,     127.2,    721.25,   -258.71, 1.046197, 0,     100, 0, 1, 0, 0, 1, 1, 100,      1600,    533.33, 1, 1, 0, 1, 0, 1, 0, 1, 0, 1
   338,  1,      83.7,      1.48,     55.54,    -19.16, 1.049578, 0,     100, 0, 1, 0, 0, 1, 1, 100,       120,         0, 1, 1, 0, 1, 0, 1, 0, 1, 0, 1
   352,  1,    1250.4,    268.17,    926.35,   -297.68, 1.054691, 0,     100, 0, 1, 0, 0, 1, 1, 100,      2000,    666.67, 1, 1, 0, 1, 0, 1, 0, 1, 0, 1
   389,  1,        69,     16.81,     56.73,    -17.84, 1.020856, 0,     100, 0, 1, 0, 0, 1, 1, 100,       120,         0, 1, 1, 0, 1, 0, 1, 0, 1, 0, 1
   413,  1,       231,     19.25,    124.12,    -49.84, 1.052152, 0,     100, 0, 1, 0, 0, 1, 1, 100,       280,         0, 1, 1, 0, 1, 0, 1, 0, 1, 0, 1
   440,  1,      83.1,     -4.05,     55.73,    -19.01, 1.029422, 0,     100, 0, 1, 0, 0, 1, 1, 100,       120,         0, 1, 1, 0, 1, 0, 1, 0, 1, 0, 1
   442,  1,    -40.35,      0.43,      1.95,     -0.93, 1.013689, 0,     100, 0, 1, 0, 0, 1, 1, 100,       100,     -53.8, 1, 1, 0, 1, 0, 1, 0, 1, 0, 1
   453,  1,     260.1,     54.54,    257.23,     -74.4, 1.021096, 0,     100, 0, 1, 0, 0, 1, 1, 100,       540,         0, 1, 1, 0, 1, 0, 1, 0, 1, 0, 1
   489,  1,    -107.4,      0.51,      6.28,     -4.82, 1.012805, 0,     100, 0, 1, 0, 0, 1, 1, 100,       100,    -143.2, 1, 1, 0, 1, 0, 1, 0, 1, 0, 1
   516,  1,     539.4,    188.57,    261.79,   -106.67, 1.074804, 0,     100, 0, 1, 0, 0, 1, 1, 100,       600,       200, 1, 1, 0, 1, 0, 1, 0, 1, 0, 1
   564,  1,    -51.67,     -0.63,     18.47,    -19.35, 1.069692, 0,     100, 0, 1, 0, 0, 1, 1, 100,       100,    -68.89, 1, 1, 0, 1, 0, 1, 0, 1, 0, 1
   583,  1,      -270,      5.38,     17.88,     -7.03, 1.043394, 0,     100, 0, 1, 0, 0, 1, 1, 100,       100,      -360, 1, 1, 0, 1, 0, 1, 0, 1, 0, 1
   615,  1,      38.2,       0.1,     17.09,     -7.79,  1.06611, 0,     100, 0, 1, 0, 0, 1, 1, 100,        40,         0, 1, 1, 0, 1, 0, 1, 0, 1, 0, 1
   616,  1,     379.2,     41.62,     217.9,    -81.16, 1.049295, 0,     100, 0, 1, 0, 0, 1, 1, 100,       480,       160, 1, 1, 0, 1, 0, 1, 0, 1, 0, 1
   618,  1,     670.3,    -35.39,    351.18,   -139.11, 1.028233, 0,     100, 0, 1, 0, 0, 1, 1, 100,       800,    266.67, 1, 1, 0, 1, 0, 1, 0, 1, 0, 1
   628,  1,     152.4,     41.51,     78.79,    -31.69,  0.98494, 0,     100, 0, 1, 0, 0, 1, 1, 100,       180,         0, 1, 1, 0, 1, 0, 1, 0, 1, 0, 1
   639,  1,     -46.2,    113.22,    135.52,     -38.9, 1.046182, 0,     100, 0, 1, 0, 0, 1, 1, 100,       100,     -61.6, 1, 1, 0, 1, 0, 1, 0, 1, 0, 1
   642,  1,     63.33,    -61.52,     90.13,    -93.03, 1.036757, 0,     100, 0, 1, 0, 0, 1, 1, 100,    276.09,         0, 1, 1, 0, 1, 0, 1, 0, 1, 0, 1
   682,  1,      37.4,      7.68,     38.77,    -11.06, 1.065269, 0,     100, 0, 1, 0, 0, 1, 1, 100,        80,         0, 1, 1, 0, 1, 0, 1, 0, 1, 0, 1
   686,  1,    -21.65,    -10.17,     34.75,    -34.26, 1.018064, 0,     100, 0, 1, 0, 0, 1, 1, 100,       100,    -28.86, 1, 1, 0, 1, 0, 1, 0, 1, 0, 1
   698,  1,     274.8,      1.65,    129.94,    -53.91, 1.001541, 0,     100, 0, 1, 0, 0, 1, 1, 100,       300,       100, 1, 1, 0, 1, 0, 1, 0, 1, 0, 1
   709,  1,        16,     -10.2,     22.23,    -20.83, 1.072146, 0,     100, 0, 1, 0, 0, 1, 1, 100,      65.3,         0, 1, 1, 0, 1, 0, 1, 0, 1, 0, 1
   739,  1,     465.7,    -64.04,    212.97,    -93.45, 1.040583, 0,     100, 0, 1, 0, 0, 1, 1, 100,       500,    166.67, 1, 1, 0, 1, 0, 1, 0, 1, 0, 1
   749,  1,    198.88,      4.46,    105.69,    -43.84,   1.0548, 0,     100, 0, 1, 0, 0, 1, 1, 100,       240,         0, 1, 1, 0, 1, 0, 1, 0, 1, 0, 1
   751,  1,      65.9,    -25.62,    136.94,    -47.24, 1.023645, 0,     100, 0, 1, 0, 0, 1, 1, 100,       300,         0, 1, 1, 0, 1, 0, 1, 0, 1, 0, 1
   757,  1,     116.7,     16.76,      51.3,    -23.41, 1.016623, 0,     100, 0, 1, 0, 0, 1, 1, 100,       120,         0, 1, 1, 0, 1, 0, 1, 0, 1, 0, 1
   776,  1,    -111.4,      5.74,     18.16,     -6.73, 1.029038, 0,     100, 0, 1, 0, 0, 1, 1, 100,       100,   -148.53, 1, 1, 0, 1, 0, 1, 0, 1, 0, 1
   778,  1,      16.5,      -0.5,     12.37,     -9.36, 1.051035, 0,     100, 0, 1, 0, 0, 1, 1, 100,     33.58,         0, 1, 1, 0, 1, 0, 1, 0, 1, 0, 1
   780,  1,      50.8,     17.97,     37.43,    -12.32, 1.006139, 0,     100, 0, 1, 0, 0, 1, 1, 100,        80,         0, 1, 1, 0, 1, 0, 1, 0, 1, 0, 1
   795,  1,      58.4,      7.49,     36.75,    -13.04, 1.039638, 0,     100, 0, 1, 0, 0, 1, 1, 100,        80,         0, 1, 1, 0, 1, 0, 1, 0, 1, 0, 1
   803,  1,     -89.2,      2.65,     74.03,    -25.54,  1.04396, 0,     100, 0, 1, 0, 0, 1, 1, 100,       100,   -118.93, 1, 1, 0, 1, 0, 1, 0, 1, 0, 1
   807,  1,    1597.5,   -194.05,    864.47,   -360.97, 1.057043, 0,     100, 0, 1, 0, 0, 1, 1, 100,      2000,    666.67, 1, 1, 0, 1, 0, 1, 0, 1, 0, 1
   823,  1,    1274.2,    283.53,    926.68,   -298.31, 1.044347, 0,     100, 0, 1, 0, 0, 1, 1, 100,      2000,    666.67, 1, 1, 0, 1, 0, 1, 0, 1, 0, 1
   849,  1,       8.7,     -0.02,      6.45,     -4.91, 1.041392, 0,     100, 0, 1, 0, 0, 1, 1, 100,     17.57,         0, 1, 1, 0, 1, 0, 1, 0, 1, 0, 1
   851,  1,     59.56,     49.36,     96.64,    -27.81, 1.006263, 0,     100, 0, 1, 0, 0, 1, 1, 100,       200,         0, 1, 1, 0, 1, 0, 1, 0, 1, 0, 1
   858,  1,     855.6,    161.18,    440.67,   -172.15, 1.035299, 0,     100, 0, 1, 0, 0, 1, 1, 100,      1000,    333.33, 1, 1, 0, 1, 0, 1, 0, 1, 0, 1
   891,  1,    1702.8,    646.56,   1097.41,   -373.91, 1.063198, 0,     100, 0, 1, 0, 0, 1, 1, 100,      2400,       800, 1, 1, 0, 1, 0, 1, 0, 1, 0, 1
   913,  1,    1249.4,    719.82,    772.11,   -269.94, 1.032774, 0,     100, 0, 1, 0, 0, 1, 1, 100,      1700,    566.67, 1, 1, 0, 1, 0, 1, 0, 1, 0, 1
   916,  1,     230.2,    -26.12,    134.45,    -49.76, 1.024009, 0,     100, 0, 1, 0, 0, 1, 1, 100,       300,         0, 1, 1, 0, 1, 0, 1, 0, 1, 0, 1
   930,  1,     679.6,    -118.4,    406.66,   -144.75, 1.063763, 0,     100, 0, 1, 0, 0, 1, 1, 100,       900,       300, 1, 1, 0, 1, 0, 1, 0, 1, 0, 1
   972,  1,    1221.2,    397.48,    934.73,   -291.52, 1.068998, 0,     100, 0, 1, 0, 0, 1, 1, 100,      2000,    666.67, 1, 1, 0, 1, 0, 1, 0, 1, 0, 1
   976,  1,      21.3,     -5.88,     36.02,    -35.35, 1.029847, 0,     100, 0, 1, 0, 0, 1, 1, 100,    107.83,         0, 1, 1, 0, 1, 0, 1, 0, 1, 0, 1
  1001,  1,      92.1,     29.32,     55.02,    -19.81, 1.073365, 0,     100, 0, 1, 0, 0, 1, 1, 100,       120,         0, 1, 1, 0, 1, 0, 1, 0, 1, 0, 1
  1002,  1,       171,     15.98,     89.55,    -35.15, 1.040649, 0,     100, 0, 1, 0, 0, 1, 1, 100,       200,         0, 1, 1, 0, 1, 0, 1, 0, 1, 0, 1
  1021,  1,    -179.3,      3.66,     58.34,    -16.23, 1.019135, 0,     100, 0, 1, 0, 0, 1, 1, 100,       100,   -239.07, 1, 1, 0, 1, 0, 1, 0, 1, 0, 1
  1030,  1,    164.94,      7.29,     71.66,    -27.89,  1.00979, 0,     100, 0, 1, 0, 0, 1, 1, 100,       400,       100, 1, 1, 0, 1, 0, 1, 0, 1, 0, 1
  1036,  1,     202.5,     -1.53,    137.39,    -46.45, 1.038657, 0,     100, 0, 1, 0, 0, 1, 1, 100,       300,       100, 1, 1, 0, 1, 0, 1, 0, 1, 0, 1
  1043,  1,     829.5,     41.74,    387.88,    -163.4, 1.029789, 0,     100, 0, 1, 0, 0, 1, 1, 100,       900,       300, 1, 1, 0, 1, 0, 1, 0, 1, 0, 1
  1083,  1,      91.8,      10.7,     54.91,    -19.88, 1.046149, 0,     100, 0, 1, 0, 0, 1, 1, 100,       120,         0, 1, 1, 0, 1, 0, 1, 0, 1, 0, 1
  1093,  1,       837,     95.08,    550.69,   -185.15, 1.026457, 0,     100, 0, 1, 0, 0, 1, 1, 100,      1200,       400, 1, 1, 0, 1, 0, 1, 0, 1, 0, 1
  1100,  1,      58.2,      5.03,      36.8,    -13.01, 1.045212, 0,     100, 0, 1, 0, 0, 1, 1, 100,        80,         0, 1, 1, 0, 1, 0, 1, 0, 1, 0, 1
  1102,  1,   -124.15,     12.77,     38.05,    -11.59, 1.051902, 0,     100, 0, 1, 0, 0, 1, 1, 100,       100,   -165.54, 1, 1, 0, 1, 0, 1, 0, 1, 0, 1
  1121,  1,    289.79,    -18.85,     158.2,    -62.81, 1.019674, 0,     100, 0, 1, 0, 0, 1, 1, 100,       360,         0, 1, 1, 0, 1, 0, 1, 0, 1, 0, 1
  1173,  1,    -124.7,      0.31,      1.85,     -0.88, 1.026125, 0,     100, 0, 1, 0, 0, 1, 1, 100,       100,   -166.27, 1, 1, 0, 1, 0, 1, 0, 1, 0, 1
  1174,  1,      26.8,      5.72,     18.61,     -6.28, 1.004865, 0,     100, 0, 1, 0, 0, 1, 1, 100,        40,         0, 1, 1, 0, 1, 0, 1, 0, 1, 0, 1
  1175,  1,    309.54,     -1.37,    108.35,    -39.12, 1.040018, 0,     100, 0, 1, 0, 0, 1, 1, 100,       700,       200, 1, 1, 0, 1, 0, 1, 0, 1, 0, 1
  1237,  1,    1504.8,    347.49,    906.61,   -319.44, 1.105045, 0,     100, 0, 1, 0, 0, 1, 1, 100,      2000,    666.67, 1, 1, 0, 1, 0, 1, 0, 1, 0, 1
  1241,  1,     46.13,    -14.82,     22.29,    -20.98, 1.021438, 0,     100, 0, 1, 0, 0, 1, 1, 100,     65.63,         0, 1, 1, 0, 1, 0, 1, 0, 1, 0, 1
  1251,  1,       837,     89.88,    550.69,   -185.15,   1.0265, 0,     100, 0, 1, 0, 0, 1, 1, 100,      1200,       400, 1, 1, 0, 1, 0, 1, 0, 1, 0, 1
  1271,  1,    -100.5,    -12.52,     32.54,    -32.11, 1.015573, 0,     100, 0, 1, 0, 0, 1, 1, 100,       100,      -134, 1, 1, 0, 1, 0, 1, 0, 1, 0, 1
  1295,  1,    -124.1,      9.31,     36.92,    -12.88, 1.038943, 0,     100, 0, 1, 0, 0, 1, 1, 100,       100,   -165.47, 1, 1, 0, 1, 0, 1, 0, 1, 0, 1
  1341,  1,      67.2,     31.22,     57.03,    -17.62, 1.030396, 0,     100, 0, 1, 0, 0, 1, 1, 100,       120,         0, 1, 1, 0, 1, 0, 1, 0, 1, 0, 1
  1354,  1,    -246.5,     21.44,     38.08,    -11.73,  1.04168, 0,     100, 0, 1, 0, 0, 1, 1, 100,       100,   -328.67, 1, 1, 0, 1, 0, 1, 0, 1, 0, 1
  1391,  1,      26.2,      2.19,     18.74,     -6.17, 1.028915, 0,     100, 0, 1, 0, 0, 1, 1, 100,        40,         0, 1, 1, 0, 1, 0, 1, 0, 1, 0, 1
  1399,  1,    -174.6,     -2.47,     11.64,     -10.2, 1.052722, 0,     100, 0, 1, 0, 0, 1, 1, 100,       100,    -232.8, 1, 1, 0, 1, 0, 1, 0, 1, 0, 1
  1409,  1,    628.19,    -89.19,    338.66,   -151.76, 1.024907, 0,     100, 0, 1, 0, 0, 1, 1, 100,       800,    266.67, 1, 1, 0, 1, 0, 1, 0, 1, 0, 1
  1422,  1,      -101,      3.68,     18.09,     -6.79, 1.045292, 0,     100, 0, 1, 0, 0, 1, 1, 100,       100,   -134.67, 1, 1, 0, 1, 0, 1, 0, 1, 0, 1
  1436,  1,      49.4,      2.83,     37.72,    -12.09, 1.049261, 0,     100, 0, 1, 0, 0, 1, 1, 100,        80,         0, 1, 1, 0, 1, 0, 1, 0, 1, 0, 1
  1458,  1,      1588,   -288.24,    895.23,   -330.78,  1.05352, 0,     100, 0, 1, 0, 0, 1, 1, 100,      2000,    666.67, 1, 1, 0, 1, 0, 1, 0, 1, 0, 1
  1475,  1,     783.9,   -108.21,    394.45,      -157, 1.025403, 0,     100, 0, 1, 0, 0, 1, 1, 100,       900,       300, 1, 1, 0, 1, 0, 1, 0, 1, 0, 1
  1478,  1,      62.6,      7.21,      36.4,    -13.44, 1.046165, 0,     100, 0, 1, 0, 0, 1, 1, 100,        80,         0, 1, 1, 0, 1, 0, 1, 0, 1, 0, 1
  1498,  1,       5.2,      0.36,      2.25,     -1.06, 1.078389, 0,     100, 0, 1, 0, 0, 1, 1, 100,      5.31,         0, 1, 1, 0, 1, 0, 1, 0, 1, 0, 1
  1570,  1,     121.4,     -4.09,     93.16,    -29.49, 1.079057, 0,     100, 0, 1, 0, 0, 1, 1, 100,       200,     66.67, 1, 1, 0, 1, 0, 1, 0, 1, 0, 1
  1604,  1,      50.6,     14.56,     37.66,    -12.17, 1.044277, 0,     100, 0, 1, 0, 0, 1, 1, 100,        80,         0, 1, 1, 0, 1, 0, 1, 0, 1, 0, 1
  1618,  1,    -136.6,    -10.11,     21.27,    -20.07, 1.079319, 0,     100, 0, 1, 0, 0, 1, 1, 100,       100,   -182.13, 1, 1, 0, 1, 0, 1, 0, 1, 0, 1
  1642,  1,      50.4,     13.34,     37.74,    -12.11, 1.031925, 0,     100, 0, 1, 0, 0, 1, 1, 100,        80,         0, 1, 1, 0, 1, 0, 1, 0, 1, 0, 1
  1680,  1,    1250.4,    271.17,    928.89,    -296.1, 1.044209, 0,     100, 0, 1, 0, 0, 1, 1, 100,      2000,    666.67, 1, 1, 0, 1, 0, 1, 0, 1, 0, 1
  1685,  1,      62.7,     16.57,     57.41,    -17.22, 1.005778, 0,     100, 0, 1, 0, 0, 1, 1, 100,       120,         0, 1, 1, 0, 1, 0, 1, 0, 1, 0, 1
  1697,  1,      -189,    -12.59,     31.94,    -31.24, 1.041486, 0,     100, 0, 1, 0, 0, 1, 1, 100,       100,      -252, 1, 1, 0, 1, 0, 1, 0, 1, 0, 1
  1708,  1,     860.8,    132.37,    439.37,    -173.3, 1.037844, 0,     100, 0, 1, 0, 0, 1, 1, 100,      1000,    333.33, 1, 1, 0, 1, 0, 1, 0, 1, 0, 1
  1721,  1,      28.1,      1.63,     18.52,     -6.39, 1.061536, 0,     100, 0, 1, 0, 0, 1, 1, 100,        40,         0, 1, 1, 0, 1, 0, 1, 0, 1, 0, 1
  1747,  1,     835.5,    271.39,    387.67,   -163.73, 1.055274, 0,     100, 0, 1, 0, 0, 1, 1, 100,       900,       300, 1, 1, 0, 1, 0, 1, 0, 1, 0, 1
  1754,  1,        40,      5.45,     16.99,     -7.92, 1.040804, 0,     100, 0, 1, 0, 0, 1, 1, 100,     41.06,         0, 1, 1, 0, 1, 0, 1, 0, 1, 0, 1
  1788,  1,     430.2,    252.54,    272.25,    -94.92, 1.018729, 0,     100, 0, 1, 0, 0, 1, 1, 100,       600,       200, 1, 1, 0, 1, 0, 1, 0, 1, 0, 1
  1793,  1,     -90.3,     -0.67,     34.64,     -15.2, 1.023406, 0,     100, 0, 1, 0, 0, 1, 1, 100,       100,    -120.4, 1, 1, 0, 1, 0, 1, 0, 1, 0, 1
  1794,  1,    1250.4,    248.88,    926.35,   -297.68, 1.052726, 0,     100, 0, 1, 0, 0, 1, 1, 100,      2000,    666.67, 1, 1, 0, 1, 0, 1, 0, 1, 0, 1
  1808,  1,      -0.6,     -6.42,    111.23,    -38.16, 1.047818, 0,     100, 0, 1, 0, 0, 1, 1, 100,       100,      -0.8, 1, 1, 0, 1, 0, 1, 0, 1, 0, 1
  1850,  1,      2.89,     -1.45,     11.52,    -10.09, 1.020156, 0,     100, 0, 1, 0, 0, 1, 1, 100,     32.97,         0, 1, 1, 0, 1, 0, 1, 0, 1, 0, 1
  1851,  1,      15.6,     -0.75,     11.76,     -8.89,   1.0492, 0,     100, 0, 1, 0, 0, 1, 1, 100,     31.92,         0, 1, 1, 0, 1, 0, 1, 0, 1, 0, 1
  1852,  1,    -241.8,      15.7,     58.16,    -16.52, 1.056131, 0,     100, 0, 1, 0, 0, 1, 1, 100,       100,    -322.4, 1, 1, 0, 1, 0, 1, 0, 1, 0, 1
  1888,  1,    573.68,     43.66,    396.02,   -155.83, 1.043102, 0,     100, 0, 1, 0, 0, 1, 1, 100,    912.78,    312.78, 1, 1, 0, 1, 0, 1, 0, 1, 0, 1
  1890,  1,      1526,    129.25,    686.73,   -294.62, 1.050852, 0,     100, 0, 1, 0, 0, 1, 1, 100,      1600,    533.33, 1, 1, 0, 1, 0, 1, 0, 1, 0, 1
  1898,  1,       246,    -24.92,    133.11,    -51.25, 1.077705, 0,     100, 0, 1, 0, 0, 1, 1, 100,       300,         0, 1, 1, 0, 1, 0, 1, 0, 1, 0, 1
  1909,  1,    -31.18,      3.61,     38.67,     -11.1, 1.021788, 0,     100, 0, 1, 0, 0, 1, 1, 100,       100,    -41.57, 1, 1, 0, 1, 0, 1, 0, 1, 0, 1
  1914,  1,     115.5,    -35.25,    160.36,   -150.95, 1.038338, 0,     100, 0, 1, 0, 0, 1, 1, 100,    472.16,     39.35, 1, 1, 0, 1, 0, 1, 0, 1, 0, 1
  1947,  1,    -17.02,      0.43,      2.05,     -0.97, 1.056511, 0,     100, 0, 1, 0, 0, 1, 1, 100,       100,     -22.7, 1, 1, 0, 1, 0, 1, 0, 1, 0, 1
  1959,  1,        31,      1.06,     18.14,     -6.75, 1.066953, 0,     100, 0, 1, 0, 0, 1, 1, 100,        40,         0, 1, 1, 0, 1, 0, 1, 0, 1, 0, 1
  1999,  1,     141.6,       5.8,     80.51,    -30.07, 1.080207, 0,     100, 0, 1, 0, 0, 1, 1, 100,       180,         0, 1, 1, 0, 1, 0, 1, 0, 1, 0, 1
  2030,  1,       576,    167.94,       257,   -110.85, 1.072679, 0,     100, 0, 1, 0, 0, 1, 1, 100,       600,       200, 1, 1, 0, 1, 0, 1, 0, 1, 0, 1
  2035,  1,     855.6,    161.48,    441.85,   -171.27, 1.034553, 0,     100, 0, 1, 0, 0, 1, 1, 100,      1000,    333.33, 1, 1, 0, 1, 0, 1, 0, 1, 0, 1
  2050,  1,     836.2,    -45.26,     962.2,   -263.65, 1.008592, 0,     100, 0, 1, 0, 0, 1, 1, 100,      2000,    666.67, 1, 1, 0, 1, 0, 1, 0, 1, 0, 1
  2085,  1,       176,      36.2,     88.39,    -36.19,  1.03273, 0,     100, 0, 1, 0, 0, 1, 1, 100,       200,         0, 1, 1, 0, 1, 0, 1, 0, 1, 0, 1
  2091,  1,      33.9,      1.74,     17.88,     -7.04, 1.026543, 0,     100, 0, 1, 0, 0, 1, 1, 100,        40,         0, 1, 1, 0, 1, 0, 1, 0, 1, 0, 1
  2096,  1,    1063.5,   -194.12,    522.74,   -212.37, 1.050714, 0,     100, 0, 1, 0, 0, 1, 1, 100,      1200,       400, 1, 1, 0, 1, 0, 1, 0, 1, 0, 1
  2107,  1,    1269.4,     611.1,     661.9,   -257.62, 1.048234, 0,     100, 0, 1, 0, 0, 1, 1, 100,      1500,       500, 1, 1, 0, 1, 0, 1, 0, 1, 0, 1
  2150,  1,     498.4,     98.97,    266.17,    -101.5, 1.064827, 0,     100, 0, 1, 0, 0, 1, 1, 100,       600,       200, 1, 1, 0, 1, 0, 1, 0, 1, 0, 1
  2177,  1,    -121.3,     15.21,     58.35,    -16.26, 1.070558, 0,     100, 0, 1, 0, 0, 1, 1, 100,       100,   -161.73, 1, 1, 0, 1, 0, 1, 0, 1, 0, 1
  2193,  1,       7.9,      1.86,      7.47,     -2.56, 1.014181, 0,     100, 0, 1, 0, 0, 1, 1, 100,     16.12,         0, 1, 1, 0, 1, 0, 1, 0, 1, 0, 1
  2197,  1,    -53.29,      2.68,     19.51,    -14.74, 1.036195, 0,     100, 0, 1, 0, 0, 1, 1, 100,       100,    -71.05, 1, 1, 0, 1, 0, 1, 0, 1, 0, 1
  2206,  1,     204.3,     24.03,    137.29,    -46.58, 1.020141, 0,     100, 0, 1, 0, 0, 1, 1, 100,       300,       100, 1, 1, 0, 1, 0, 1, 0, 1, 0, 1
  2225,  1,     -83.5,      0.41,      2.27,     -1.04,  1.02967, 0,     100, 0, 1, 0, 0, 1, 1, 100,       100,   -111.33, 1, 1, 0, 1, 0, 1, 0, 1, 0, 1
  2236,  1,    -38.45,      0.44,      2.23,     -1.07, 1.023164, 0,     100, 0, 1, 0, 0, 1, 1, 100,       100,    -51.26, 1, 1, 0, 1, 0, 1, 0, 1, 0, 1
  2267,  1,       362,    147.75,    228.16,    -78.83, 1.000857, 0,     100, 0, 1, 0, 0, 1, 1, 100,       500,    166.67, 1, 1, 0, 1, 0, 1, 0, 1, 0, 1
  2276,  1,      38.9,    -22.76,     41.67,     -36.5, 1.055141, 0,     100, 0, 1, 0, 0, 1, 1, 100,     119.3,         0, 1, 1, 0, 1, 0, 1, 0, 1, 0, 1
  2291,  1,     110.5,     12.61,     95.69,    -28.93, 1.068687, 0,     100, 0, 1, 0, 0, 1, 1, 100,       200,         0, 1, 1, 0, 1, 0, 1, 0, 1, 0, 1
  2335,  1,     431.2,    242.01,    273.49,     -94.1, 1.040978, 0,     100, 0, 1, 0, 0, 1, 1, 100,       600,       200, 1, 1, 0, 1, 0, 1, 0, 1, 0, 1
  2359,  1,      78.2,      8.56,     34.35,     -15.5, 1.025004, 0,     100, 0, 1, 0, 0, 1, 1, 100,        80,         0, 1, 1, 0, 1, 0, 1, 0, 1, 0, 1
...